fpftdyn = '/glade/p/cesmdata/cseg/inputdata/lnd/clm2/surfdata_map/surfdata.pftdyn_1x1_tropicAtl_TEST_simyr1939-1943_c140108.nc'
