 hist_dov2xy    = .true.,.false.
 hist_ndens     = 1,1
! add some special history fields: multi-layer snow fields, and a per-column forcing field
 hist_fincl1    = 'SNO_EXISTENCE', 'SNO_ABS', 'SNO_T:M', 'SNO_GS:X', 'QICE_FORC'
 hist_fincl2    = 'QICE'
 hist_nhtfrq    =-24,-8
 hist_mfilt     = 1,3
